
OS:Version,
  {982b51b1-aa6f-4b4f-85e4-5e3e1c648759}, !- Handle
  3.7.0;                                  !- Version Identifier

OS:Site,
  {ce053b29-7e75-4b22-934b-728589ea6c8c}, !- Handle
  New.York-John.F.Kennedy.Intl.AP_NY_USA WMO=744860, !- Name
  40.66,                                  !- Latitude {deg}
  -73.8,                                  !- Longitude {deg}
  -5,                                     !- Time Zone {hr}
  7,                                      !- Elevation {m}
  City;                                   !- Terrain

OS:SimulationControl,
  {26bd1a98-e3f1-493a-ad2d-c942ef415a55}, !- Handle
  Yes,                                    !- Do Zone Sizing Calculation
  Yes,                                    !- Do System Sizing Calculation
  Yes,                                    !- Do Plant Sizing Calculation
  No,                                     !- Run Simulation for Sizing Periods
  Yes,                                    !- Run Simulation for Weather File Run Periods
  0.04,                                   !- Loads Convergence Tolerance Value {W}
  0.2,                                    !- Temperature Convergence Tolerance Value {deltaC}
  FullInteriorAndExterior,                !- Solar Distribution
  25,                                     !- Maximum Number of Warmup Days
  6,                                      !- Minimum Number of Warmup Days
  No,                                     !- Do HVAC Sizing Simulation for Sizing Periods
  1;                                      !- Maximum Number of HVAC Sizing Simulation Passes

OS:Schedule:Compact,
  {e9a8e5de-1362-4378-ae3b-3fa044196cc0}, !- Handle
  PV_SCH,                                 !- Name
  {afecb8e0-99b5-43fb-a962-83ebaccd2926}, !- Schedule Type Limits Name
  Through: 12/31,                         !- Field 1
  For: AllDays,                           !- Field 2
  Until: 24:00,                           !- Field 3
  1;                                      !- Field 4

OS:ScheduleTypeLimits,
  {afecb8e0-99b5-43fb-a962-83ebaccd2926}, !- Handle
  Fraction,                               !- Name
  0,                                      !- Lower Limit Value
  1,                                      !- Upper Limit Value
  CONTINUOUS;                             !- Numeric Type

OS:Building,
  {2805d23b-f704-4bdc-b66d-d7e894baedea}, !- Handle
  OfficeSmall,                            !- Name
  ,                                       !- Building Sector Type
  0,                                      !- North Axis {deg}
  ,                                       !- Nominal Floor to Floor Height {m}
  ,                                       !- Space Type Name
  ,                                       !- Default Construction Set Name
  ;                                       !- Default Schedule Set Name

OS:ShadowCalculation,
  {6b3d6e79-4f77-4e2e-bdfc-4e5168b37a58}, !- Handle
  PolygonClipping,                        !- Shading Calculation Method
  Periodic,                               !- Shading Calculation Update Frequency Method
  30,                                     !- Shading Calculation Update Frequency
  15000,                                  !- Maximum Figures in Shadow Overlap Calculations
  ,                                       !- Polygon Clipping Algorithm
  512,                                    !- Pixel Counting Resolution
  ,                                       !- Sky Diffuse Modeling Algorithm
  No,                                     !- Output External Shading Calculation Results
  No,                                     !- Disable Self-Shading Within Shading Zone Groups
  No;                                     !- Disable Self-Shading From Shading Zone Groups to Other Zones

OS:Timestep,
  {7247c3b1-bed0-4dff-80b6-8c4685d5af08}, !- Handle
  6;                                      !- Number of Timesteps per Hour

OS:ConvergenceLimits,
  {e58bcf79-d8dc-4cd1-a1c5-6eb93ec4c999}, !- Handle
  1,                                      !- Minimum System Timestep {minutes}
  20;                                     !- Maximum HVAC Iterations

OS:RunPeriod,
  {0f52fb69-8247-47c1-aae6-854de6b1b20f}, !- Handle
  RUNPERIOD 1,                            !- Name
  1,                                      !- Begin Month
  1,                                      !- Begin Day of Month
  12,                                     !- End Month
  31,                                     !- End Day of Month
  No,                                     !- Use Weather File Holidays and Special Days
  No,                                     !- Use Weather File Daylight Saving Period
  No,                                     !- Apply Weekend Holiday Rule
  Yes,                                    !- Use Weather File Rain Indicators
  Yes,                                    !- Use Weather File Snow Indicators
  ;                                       !- Number of Times Runperiod to be Repeated

OS:YearDescription,
  {c1962a29-f544-4316-a883-2253713edc18}, !- Handle
  ,                                       !- Calendar Year
  Sunday;                                 !- Day of Week for Start Day

OS:RunPeriodControl:SpecialDays,
  {89fd5142-3fed-41d7-9ef5-7d0a7f09a82b}, !- Handle
  New Years Day,                          !- Name
  January 1,                              !- Start Date
  1,                                      !- Duration {days}
  Holiday;                                !- Special Day Type

OS:RunPeriodControl:SpecialDays,
  {39d77a09-8990-4064-ad1f-3a44e5f7a085}, !- Handle
  Veterans Day,                           !- Name
  November 11,                            !- Start Date
  1,                                      !- Duration {days}
  Holiday;                                !- Special Day Type

OS:RunPeriodControl:SpecialDays,
  {2fe0bf6b-5b68-4481-a176-39e82f80a98d}, !- Handle
  Christmas,                              !- Name
  December 25,                            !- Start Date
  1,                                      !- Duration {days}
  Holiday;                                !- Special Day Type

OS:RunPeriodControl:SpecialDays,
  {a54e4cbc-3a37-43bc-8a64-09ae6f5deb31}, !- Handle
  Independence Day,                       !- Name
  July 4,                                 !- Start Date
  1,                                      !- Duration {days}
  Holiday;                                !- Special Day Type

OS:RunPeriodControl:SpecialDays,
  {b464d9b4-c973-49a6-8494-aea51486e65b}, !- Handle
  MLK Day,                                !- Name
  3rd Monday in January,                  !- Start Date
  1,                                      !- Duration {days}
  Holiday;                                !- Special Day Type

OS:RunPeriodControl:SpecialDays,
  {e28ba7f2-67d8-433b-92b4-2c604a12ad38}, !- Handle
  Presidents Day,                         !- Name
  3rd Monday in February,                 !- Start Date
  1,                                      !- Duration {days}
  Holiday;                                !- Special Day Type

OS:RunPeriodControl:SpecialDays,
  {c5c2fb86-8eaa-4088-bb26-9a74fce07cfc}, !- Handle
  Memorial Day,                           !- Name
  Last Monday in May,                     !- Start Date
  1,                                      !- Duration {days}
  Holiday;                                !- Special Day Type

OS:RunPeriodControl:SpecialDays,
  {90666fca-8b91-46b4-81d5-7bf6ffc0e698}, !- Handle
  Labor Day,                              !- Name
  1st Monday in September,                !- Start Date
  1,                                      !- Duration {days}
  Holiday;                                !- Special Day Type

OS:RunPeriodControl:SpecialDays,
  {b781ffac-a054-4a5a-9762-967809c57d32}, !- Handle
  Columbus Day,                           !- Name
  2nd Monday in October,                  !- Start Date
  1,                                      !- Duration {days}
  Holiday;                                !- Special Day Type

OS:RunPeriodControl:SpecialDays,
  {6e7f1e4d-e001-432f-8ac4-25a7cb16733d}, !- Handle
  Thanksgiving,                           !- Name
  4th Thursday in November,               !- Start Date
  1,                                      !- Duration {days}
  Holiday;                                !- Special Day Type

OS:RunPeriodControl:DaylightSavingTime,
  {4a755c72-e1e0-4181-ae27-7ce1d6c64b43}, !- Handle
  2nd Sunday in March,                    !- Start Date
  1st Sunday in November;                 !- End Date

OS:SizingPeriod:DesignDay,
  {867dc796-381a-44ee-adb3-d3934d90fd1e}, !- Handle
  New.York-John.F.Kennedy.Intl.AP_NY_USA Ann Htg 99.6% Condns DB, !- Name
  -10.7,                                  !- Maximum Dry-Bulb Temperature {C}
  0,                                      !- Daily Dry-Bulb Temperature Range {deltaC}
  101241,                                 !- Barometric Pressure {Pa}
  7.5,                                    !- Wind Speed {m/s}
  320,                                    !- Wind Direction {deg}
  0,                                      !- Sky Clearness
  No,                                     !- Rain Indicator
  No,                                     !- Snow Indicator
  21,                                     !- Day of Month
  1,                                      !- Month
  WinterDesignDay,                        !- Day Type
  No,                                     !- Daylight Saving Time Indicator
  Wetbulb,                                !- Humidity Condition Type
  ,                                       !- Humidity Condition Day Schedule Name
  -10.7,                                  !- Wetbulb or DewPoint at Maximum Dry-Bulb {C}
  ,                                       !- Humidity Ratio at Maximum Dry-Bulb {kgWater/kgDryAir}
  ,                                       !- Enthalpy at Maximum Dry-Bulb {J/kg}
  DefaultMultipliers,                     !- Dry-Bulb Temperature Range Modifier Type
  ,                                       !- Dry-Bulb Temperature Range Modifier Day Schedule Name
  ASHRAEClearSky;                         !- Solar Model Indicator

OS:SizingPeriod:DesignDay,
  {5c751ecd-40a6-4092-8ddc-53e5179b0b85}, !- Handle
  New.York-John.F.Kennedy.Intl.AP_NY_USA Ann Clg .4% Condns DB=>MWB, !- Name
  32.1,                                   !- Maximum Dry-Bulb Temperature {C}
  7.4,                                    !- Daily Dry-Bulb Temperature Range {deltaC}
  101241,                                 !- Barometric Pressure {Pa}
  5.6,                                    !- Wind Speed {m/s}
  230,                                    !- Wind Direction {deg}
  ,                                       !- Sky Clearness
  No,                                     !- Rain Indicator
  No,                                     !- Snow Indicator
  21,                                     !- Day of Month
  7,                                      !- Month
  SummerDesignDay,                        !- Day Type
  No,                                     !- Daylight Saving Time Indicator
  Wetbulb,                                !- Humidity Condition Type
  ,                                       !- Humidity Condition Day Schedule Name
  23.1,                                   !- Wetbulb or DewPoint at Maximum Dry-Bulb {C}
  ,                                       !- Humidity Ratio at Maximum Dry-Bulb {kgWater/kgDryAir}
  ,                                       !- Enthalpy at Maximum Dry-Bulb {J/kg}
  DefaultMultipliers,                     !- Dry-Bulb Temperature Range Modifier Type
  ,                                       !- Dry-Bulb Temperature Range Modifier Day Schedule Name
  ASHRAETau,                              !- Solar Model Indicator
  ,                                       !- Beam Solar Day Schedule Name
  ,                                       !- Diffuse Solar Day Schedule Name
  0.541,                                  !- ASHRAE Clear Sky Optical Depth for Beam Irradiance {dimensionless}
  1.8;                                    !- ASHRAE Clear Sky Optical Depth for Diffuse Irradiance {dimensionless}

OS:Schedule:Compact,
  {ebdd65ab-3fec-44b6-b080-505132e78c5d}, !- Handle
  CLGSETP_SCH_YES_OPTIMUM_STARTSTOP,      !- Name
  {2a7e65ee-7b41-41b0-a0af-8afbfbb4a175}, !- Schedule Type Limits Name
  Through: 12/31,                         !- Field 1
  For: WeekDays,                          !- Field 2
  Until: 6:00,                            !- Field 3
  29.44,                                  !- Field 4
  Until: 7:00,                            !- Field 5
  27.8,                                   !- Field 6
  Until: 8:00,                            !- Field 7
  25.6,                                   !- Field 8
  Until: 17:00,                           !- Field 9
  23.89,                                  !- Field 10
  Until: 18:00,                           !- Field 11
  25.0,                                   !- Field 12
  Until: 24:00,                           !- Field 13
  29.44,                                  !- Field 14
  For: Weekends,                          !- Field 15
  Until: 24:00,                           !- Field 16
  29.44,                                  !- Field 17
  For: Holiday,                           !- Field 18
  Until: 24:00,                           !- Field 19
  29.44,                                  !- Field 20
  For: WinterDesignDay,                   !- Field 21
  Until: 24:00,                           !- Field 22
  29.44,                                  !- Field 23
  For: SummerDesignDay,                   !- Field 24
  Until: 24:00,                           !- Field 25
  23.89,                                  !- Field 26
  For: CustomDay1,                        !- Field 27
  Until: 24:00,                           !- Field 28
  29.44,                                  !- Field 29
  For: CustomDay2,                        !- Field 30
  Until: 24:00,                           !- Field 31
  29.44;                                  !- Field 32

OS:ScheduleTypeLimits,
  {2a7e65ee-7b41-41b0-a0af-8afbfbb4a175}, !- Handle
  Temperature,                            !- Name
  -60,                                    !- Lower Limit Value
  200,                                    !- Upper Limit Value
  CONTINUOUS,                             !- Numeric Type
  Temperature;                            !- Unit Type

OS:Material:NoMass,
  {f1a843de-8077-4f65-aecb-ceaf96294546}, !- Handle
  Opaque Door panel_con,                  !- Name
  MediumRough,                            !- Roughness
  0.475973498005059,                      !- Thermal Resistance {m2-K/W}
  0.9,                                    !- Thermal Absorptance
  0.7,                                    !- Solar Absorptance
  0.7;                                    !- Visible Absorptance

OS:Construction,
  {20c9077c-a213-4597-ac3b-9fea53eee693}, !- Handle
  Swinging Door_con,                      !- Name
  ,                                       !- Surface Rendering Name
  {f1a843de-8077-4f65-aecb-ceaf96294546}; !- Layer 1

OS:ScheduleTypeLimits,
  {d19b7c4e-0027-4787-90e8-fc6f95c07a64}, !- Handle
  Schedule Type Limits 1;                 !- Name

OS:ScheduleTypeLimits,
  {af3d4e38-15c3-4fde-9db2-37f587d4ac77}, !- Handle
  On/Off,                                 !- Name
  0,                                      !- Lower Limit Value
  1,                                      !- Upper Limit Value
  DISCRETE,                               !- Numeric Type
  Availability;                           !- Unit Type

OS:ScheduleTypeLimits,
  {57e6f96b-ae36-4457-b67a-4084c4df7434}, !- Handle
  Control Type,                           !- Name
  0,                                      !- Lower Limit Value
  4,                                      !- Upper Limit Value
  DISCRETE,                               !- Numeric Type
  ControlMode;                            !- Unit Type

OS:ScheduleTypeLimits,
  {059e7c33-b688-47f4-a08e-7d3924d84f25}, !- Handle
  Humidity,                               !- Name
  10,                                     !- Lower Limit Value
  90,                                     !- Upper Limit Value
  CONTINUOUS;                             !- Numeric Type

OS:ScheduleTypeLimits,
  {6ae327d9-1086-4758-b45b-7fc5f10dbf26}, !- Handle
  Schedule Type Limits 2;                 !- Name

OS:Schedule:Compact,
  {adfd3c25-854a-41ae-8def-61c1ccc8e8c9}, !- Handle
  ltg_sch_office,                         !- Name
  {afecb8e0-99b5-43fb-a962-83ebaccd2926}, !- Schedule Type Limits Name
  Through: 12/31,                         !- Field 1
  For: SummerDesignDay,                   !- Field 2
  Until: 24:00,                           !- Field 3
  1,                                      !- Field 4
  For: WinterDesignDay,                   !- Field 5
  Until: 24:00,                           !- Field 6
  0,                                      !- Field 7
  For: Weekdays,                          !- Field 8
  Until: 5:00,                            !- Field 9
  0.1141323175375,                        !- Field 10
  Until: 7:00,                            !- Field 11
  0.145834697228125,                      !- Field 12
  Until: 8:00,                            !- Field 13
  0.266305615378125,                      !- Field 14
  Until: 12:00,                           !- Field 15
  0.570652211059375,                      !- Field 16
  Until: 13:00,                           !- Field 17
  0.507247451678125,                      !- Field 18
  Until: 17:00,                           !- Field 19
  0.570652211059375,                      !- Field 20
  Until: 18:00,                           !- Field 21
  0.386776533528125,                      !- Field 22
  Until: 20:00,                           !- Field 23
  0.266305615378125,                      !- Field 24
  Until: 22:00,                           !- Field 25
  0.202900855996875,                      !- Field 26
  Until: 23:00,                           !- Field 27
  0.145834697228125,                      !- Field 28
  Until: 24:00,                           !- Field 29
  0.1141323175375,                        !- Field 30
  For: Saturday,                          !- Field 31
  Until: 24:00,                           !- Field 32
  0.1141323175375,                        !- Field 33
  For: AllOtherDays,                      !- Field 34
  Until: 24:00,                           !- Field 35
  0.1141323175375;                        !- Field 36

OS:Schedule:Compact,
  {148ffd37-a51c-437f-9ced-ccf4340a330d}, !- Handle
  BLDG_EQUIP_SCH,                         !- Name
  {afecb8e0-99b5-43fb-a962-83ebaccd2926}, !- Schedule Type Limits Name
  Through: 12/31,                         !- Field 1
  For: WeekDays,                          !- Field 2
  Until: 6:00,                            !- Field 3
  0.4094775565,                           !- Field 4
  Until: 8:00,                            !- Field 5
  0.4797526335,                           !- Field 6
  Until: 12:00,                           !- Field 7
  0.959505267,                            !- Field 8
  Until: 13:00,                           !- Field 9
  0.90193495098,                          !- Field 10
  Until: 17:00,                           !- Field 11
  0.959505267,                            !- Field 12
  Until: 18:00,                           !- Field 13
  0.4797526335,                           !- Field 14
  Until: 23:00,                           !- Field 15
  0.1919010534,                           !- Field 16
  Until: 24:00,                           !- Field 17
  0.1637910226,                           !- Field 18
  For: Weekends,                          !- Field 19
  Until: 24:00,                           !- Field 20
  0.1637910226,                           !- Field 21
  For: Holiday,                           !- Field 22
  Until: 24:00,                           !- Field 23
  0.1637910226,                           !- Field 24
  For: WinterDesignDay,                   !- Field 25
  Until: 24:00,                           !- Field 26
  0.0,                                    !- Field 27
  For: SummerDesignDay,                   !- Field 28
  Until: 24:00,                           !- Field 29
  1.0,                                    !- Field 30
  For: CustomDay1,                        !- Field 31
  Until: 24:00,                           !- Field 32
  0.0,                                    !- Field 33
  For: CustomDay2,                        !- Field 34
  Until: 24:00,                           !- Field 35
  0.0;                                    !- Field 36

OS:Schedule:Compact,
  {23218632-efb2-440b-80f6-088a84dede2a}, !- Handle
  BLDG_OCC_SCH,                           !- Name
  {afecb8e0-99b5-43fb-a962-83ebaccd2926}, !- Schedule Type Limits Name
  Through: 12/31,                         !- Field 1
  For: Weekdays,                          !- Field 2
  Until: 6:00,                            !- Field 3
  0.0,                                    !- Field 4
  Until: 7:00,                            !- Field 5
  0.11,                                   !- Field 6
  Until: 8:00,                            !- Field 7
  0.21,                                   !- Field 8
  Until: 12:00,                           !- Field 9
  1.0,                                    !- Field 10
  Until: 13:00,                           !- Field 11
  0.53,                                   !- Field 12
  Until: 17:00,                           !- Field 13
  1.0,                                    !- Field 14
  Until: 18:00,                           !- Field 15
  0.32,                                   !- Field 16
  Until: 22:00,                           !- Field 17
  0.11,                                   !- Field 18
  Until: 23:00,                           !- Field 19
  0.05,                                   !- Field 20
  Until: 24:00,                           !- Field 21
  0.0,                                    !- Field 22
  For: Weekends,                          !- Field 23
  Until: 24:00,                           !- Field 24
  0.0,                                    !- Field 25
  For: Holiday,                           !- Field 26
  Until: 24:00,                           !- Field 27
  0.0,                                    !- Field 28
  For: WinterDesignDay,                   !- Field 29
  Until: 24:00,                           !- Field 30
  0.0,                                    !- Field 31
  For: SummerDesignDay,                   !- Field 32
  Until: 24:00,                           !- Field 33
  1.0,                                    !- Field 34
  For: CustomDay1,                        !- Field 35
  Until: 24:00,                           !- Field 36
  0.0,                                    !- Field 37
  For: CustomDay2,                        !- Field 38
  Until: 24:00,                           !- Field 39
  0.0;                                    !- Field 40

OS:Schedule:Compact,
  {a582bed6-84ca-4f6d-806e-25579e8f9fd6}, !- Handle
  BLDG_OCC_SCH_w_SB,                      !- Name
  {afecb8e0-99b5-43fb-a962-83ebaccd2926}, !- Schedule Type Limits Name
  Through: 12/31,                         !- Field 1
  For: Weekdays,                          !- Field 2
  Until: 01:00,                           !- Field 3
  0,                                      !- Field 4
  Until: 02:00,                           !- Field 5
  0,                                      !- Field 6
  Until: 03:00,                           !- Field 7
  0,                                      !- Field 8
  Until: 04:00,                           !- Field 9
  0,                                      !- Field 10
  Until: 05:00,                           !- Field 11
  0,                                      !- Field 12
  Until: 06:00,                           !- Field 13
  0,                                      !- Field 14
  Until: 07:00,                           !- Field 15
  0.11,                                   !- Field 16
  Until: 08:00,                           !- Field 17
  0.21,                                   !- Field 18
  Until: 09:00,                           !- Field 19
  1,                                      !- Field 20
  Until: 10:00,                           !- Field 21
  1,                                      !- Field 22
  Until: 11:00,                           !- Field 23
  0,                                      !- Field 24
  Until: 12:00,                           !- Field 25
  1,                                      !- Field 26
  Until: 13:00,                           !- Field 27
  0,                                      !- Field 28
  Until: 14:00,                           !- Field 29
  1,                                      !- Field 30
  Until: 15:00,                           !- Field 31
  0,                                      !- Field 32
  Until: 16:00,                           !- Field 33
  1,                                      !- Field 34
  Until: 17:00,                           !- Field 35
  1,                                      !- Field 36
  Until: 18:00,                           !- Field 37
  0.32,                                   !- Field 38
  Until: 19:00,                           !- Field 39
  0.11,                                   !- Field 40
  Until: 20:00,                           !- Field 41
  0.11,                                   !- Field 42
  Until: 21:00,                           !- Field 43
  0.11,                                   !- Field 44
  Until: 22:00,                           !- Field 45
  0.11,                                   !- Field 46
  Until: 23:00,                           !- Field 47
  0.05,                                   !- Field 48
  Until: 24:00,                           !- Field 49
  0,                                      !- Field 50
  For: Weekends,                          !- Field 51
  Until: 01:00,                           !- Field 52
  0,                                      !- Field 53
  Until: 02:00,                           !- Field 54
  0,                                      !- Field 55
  Until: 03:00,                           !- Field 56
  0,                                      !- Field 57
  Until: 04:00,                           !- Field 58
  0,                                      !- Field 59
  Until: 05:00,                           !- Field 60
  0,                                      !- Field 61
  Until: 06:00,                           !- Field 62
  0,                                      !- Field 63
  Until: 07:00,                           !- Field 64
  0,                                      !- Field 65
  Until: 08:00,                           !- Field 66
  0,                                      !- Field 67
  Until: 09:00,                           !- Field 68
  0,                                      !- Field 69
  Until: 10:00,                           !- Field 70
  0,                                      !- Field 71
  Until: 11:00,                           !- Field 72
  0,                                      !- Field 73
  Until: 12:00,                           !- Field 74
  0,                                      !- Field 75
  Until: 13:00,                           !- Field 76
  0,                                      !- Field 77
  Until: 14:00,                           !- Field 78
  0,                                      !- Field 79
  Until: 15:00,                           !- Field 80
  0,                                      !- Field 81
  Until: 16:00,                           !- Field 82
  0,                                      !- Field 83
  Until: 17:00,                           !- Field 84
  0,                                      !- Field 85
  Until: 18:00,                           !- Field 86
  0,                                      !- Field 87
  Until: 19:00,                           !- Field 88
  0,                                      !- Field 89
  Until: 20:00,                           !- Field 90
  0,                                      !- Field 91
  Until: 21:00,                           !- Field 92
  0,                                      !- Field 93
  Until: 22:00,                           !- Field 94
  0,                                      !- Field 95
  Until: 23:00,                           !- Field 96
  0,                                      !- Field 97
  Until: 24:00,                           !- Field 98
  0,                                      !- Field 99
  For: Holiday,                           !- Field 100
  Until: 24:00,                           !- Field 101
  0.0,                                    !- Field 102
  For: WinterDesignDay,                   !- Field 103
  Until: 24:00,                           !- Field 104
  0.0,                                    !- Field 105
  For: SummerDesignDay,                   !- Field 106
  Until: 24:00,                           !- Field 107
  1.0,                                    !- Field 108
  For: CustomDay1,                        !- Field 109
  Until: 24:00,                           !- Field 110
  0.0,                                    !- Field 111
  For: CustomDay2,                        !- Field 112
  Until: 24:00,                           !- Field 113
  0.0;                                    !- Field 114

OS:Schedule:Compact,
  {88791ed9-b544-483b-8f06-3bb60132f1b6}, !- Handle
  CLGSETP_SCH_NO_OPTIMUM_w_SB,            !- Name
  {2a7e65ee-7b41-41b0-a0af-8afbfbb4a175}, !- Schedule Type Limits Name
  Through: 12/31,                         !- Field 1
  For: Weekdays,                          !- Field 2
  Until: 01:00,                           !- Field 3
  29.44,                                  !- Field 4
  Until: 02:00,                           !- Field 5
  29.44,                                  !- Field 6
  Until: 03:00,                           !- Field 7
  29.44,                                  !- Field 8
  Until: 04:00,                           !- Field 9