
OS:Version,
  {de6ac484-db49-4e2d-a34c-f70a244a61b0}, !- Handle
  3.7.0;                                  !- Version Identifier

OS:Site,
  {5a219a97-18ad-44e5-9f0e-2f4c5b1b1d21}, !- Handle
  Dubai.Intl.AP_ARE WMO=411940,           !- Name
  25.25,                                  !- Latitude {deg}
  55.33,                                  !- Longitude {deg}
  4,                                      !- Time Zone {hr}
  5,                                      !- Elevation {m}
  City;                                   !- Terrain

OS:SimulationControl,
  {f7b93717-2a14-41fd-8694-1dce893df194}, !- Handle
  Yes,                                    !- Do Zone Sizing Calculation
  Yes,                                    !- Do System Sizing Calculation
  Yes,                                    !- Do Plant Sizing Calculation
  No,                                     !- Run Simulation for Sizing Periods
  Yes,                                    !- Run Simulation for Weather File Run Periods
  0.04,                                   !- Loads Convergence Tolerance Value {W}
  0.2,                                    !- Temperature Convergence Tolerance Value {deltaC}
  FullInteriorAndExterior,                !- Solar Distribution
  25,                                     !- Maximum Number of Warmup Days
  6,                                      !- Minimum Number of Warmup Days
  No,                                     !- Do HVAC Sizing Simulation for Sizing Periods
  1;                                      !- Maximum Number of HVAC Sizing Simulation Passes

OS:Schedule:Compact,
  {8f5e9f28-cc1e-42a2-8648-eea6349eddcf}, !- Handle
  PV_SCH,                                 !- Name
  {9925b574-c8b0-4e5d-9b5f-5df4d07b3086}, !- Schedule Type Limits Name
  Through: 12/31,                         !- Field 1
  For: AllDays,                           !- Field 2
  Until: 24:00,                           !- Field 3
  1;                                      !- Field 4

OS:ScheduleTypeLimits,
  {9925b574-c8b0-4e5d-9b5f-5df4d07b3086}, !- Handle
  Fraction,                               !- Name
  0,                                      !- Lower Limit Value
  1,                                      !- Upper Limit Value
  CONTINUOUS;                             !- Numeric Type

OS:Building,
  {cad8a564-2c8a-4e46-9684-85a17b032e92}, !- Handle
  OfficeSmall,                            !- Name
  ,                                       !- Building Sector Type
  0,                                      !- North Axis {deg}
  ,                                       !- Nominal Floor to Floor Height {m}
  ,                                       !- Space Type Name
  ,                                       !- Default Construction Set Name
  ;                                       !- Default Schedule Set Name

OS:ShadowCalculation,
  {4b21b1d3-8b60-4913-989e-3af952402e88}, !- Handle
  PolygonClipping,                        !- Shading Calculation Method
  Periodic,                               !- Shading Calculation Update Frequency Method
  30,                                     !- Shading Calculation Update Frequency
  15000,                                  !- Maximum Figures in Shadow Overlap Calculations
  ,                                       !- Polygon Clipping Algorithm
  512,                                    !- Pixel Counting Resolution
  ,                                       !- Sky Diffuse Modeling Algorithm
  No,                                     !- Output External Shading Calculation Results
  No,                                     !- Disable Self-Shading Within Shading Zone Groups
  No;                                     !- Disable Self-Shading From Shading Zone Groups to Other Zones

OS:Surface,
  {5c5ce504-938a-4aa8-bd58-e76e7341b033}, !- Handle
  Perimeter_ZN_2_wall_east,               !- Name
  Wall,                                   !- Surface Type
  {2ec16523-abcd-4a7b-87a8-03959ecc0911}, !- Construction Name
  {b0f30c3b-21f3-45f2-b6dc-a4e2d8f01866}, !- Space Name
  Outdoors,                               !- Outside Boundary Condition
  ,                                       !- Outside Boundary Condition Object
  SunExposed,                             !- Sun Exposure
  WindExposed,                            !- Wind Exposure
  ,                                       !- View Factor to Ground
  ,                                       !- Number of Vertices
  27.69, 0, 3.05,                         !- X,Y,Z Vertex 1 {m}
  27.69, 0, 0,                            !- X,Y,Z Vertex 2 {m}
  27.69, 18.46, 0,                        !- X,Y,Z Vertex 3 {m}
  27.69, 18.46, 3.05;                     !- X,Y,Z Vertex 4 {m}

OS:Construction,
  {2ec16523-abcd-4a7b-87a8-03959ecc0911}, !- Handle
  nonres_ext_wall_grd,                    !- Name
  ,                                       !- Surface Rendering Name
  {6e1eb190-db7c-4459-b572-8cb32533f344}, !- Layer 1
  {540e0ddc-9ee2-47e1-9702-06aff01f0f91}, !- Layer 2
  {1690ce29-1d6f-456c-8e7c-6d35f0fa375d}, !- Layer 3
  {540e0ddc-9ee2-47e1-9702-06aff01f0f91}; !- Layer 4

OS:Material,
  {6e1eb190-db7c-4459-b572-8cb32533f344}, !- Handle
  F07 25mm stucco,                        !- Name
  Smooth,                                 !- Roughness
  0.0254,                                 !- Thickness {m}
  0.72,                                   !- Conductivity {W/m-K}
  1856,                                   !- Density {kg/m3}
  840,                                    !- Specific Heat {J/kg-K}
  0.9,                                    !- Thermal Absorptance
  0.7,                                    !- Solar Absorptance
  0.7;                                    !- Visible Absorptance

OS:Material,
  {540e0ddc-9ee2-47e1-9702-06aff01f0f91}, !- Handle
  G01 16mm gypsum board,                  !- Name
  MediumSmooth,                           !- Roughness
  0.0159,                                 !- Thickness {m}
  0.16,                                   !- Conductivity {W/m-K}
  800,                                    !- Density {kg/m3}
  1090;                                   !- Specific Heat {J/kg-K}

OS:Material:NoMass,
  {1690ce29-1d6f-456c-8e7c-6d35f0fa375d}, !- Handle
  Nonres_Exterior_Wall_Insulation_grd,    !- Name
  MediumSmooth,                           !- Roughness
  1.06783369996193,                       !- Thermal Resistance {m2-K/W}
  0.9,                                    !- Thermal Absorptance
  0.7,                                    !- Solar Absorptance
  0.7;                                    !- Visible Absorptance

OS:ThermalZone,
  {48e632f4-ca7e-442b-959b-d7717b47e54c}, !- Handle
  Perimeter_ZN_2,                         !- Name
  1,                                      !- Multiplier
  ,                                       !- Ceiling Height {m}
  ,                                       !- Volume {m3}
  ,                                       !- Floor Area {m2}
  ,                                       !- Zone Inside Convection Algorithm
  ,                                       !- Zone Outside Convection Algorithm
  ,                                       !- Zone Conditioning Equipment List Name
  {fcb9cf94-2a89-4a6d-b794-8e774bd35762}, !- Zone Air Inlet Port List
  {9d306309-6439-435c-b797-437dd8aee3f8}, !- Zone Air Exhaust Port List
  {c3401bff-6518-4494-a3c8-8a94d7cf7821}, !- Zone Air Node Name
  {62382ff9-3f98-402d-9cb9-d5fb52e6000f}, !- Zone Return Air Port List
  {3f78305d-fbde-40e7-be4e-7cd5182f24a8}, !- Primary Daylighting Control Name
  0.0302,                                 !- Fraction of Zone Controlled by Primary Daylighting Control
  {1537f0d7-88af-416c-b0e6-b451a903f614}, !- Secondary Daylighting Control Name
  ,                                       !- Fraction of Zone Controlled by Secondary Daylighting Control
  ,                                       !- Illuminance Map Name
  ,                                       !- Group Rendering Name
  {f82f2559-b590-4d85-b7c3-9e3432a6f79c}, !- Thermostat Name
  No;                                     !- Use Ideal Air Loads

OS:Node,
  {401b278d-95c8-40d3-aa0c-e504809f040f}, !- Handle
  Node 1,                                 !- Name
  {c3401bff-6518-4494-a3c8-8a94d7cf7821}, !- Inlet Port
  ;                                       !- Outlet Port

OS:Connection,
  {c3401bff-6518-4494-a3c8-8a94d7cf7821}, !- Handle
  {48e632f4-ca7e-442b-959b-d7717b47e54c}, !- Source Object
  11,                                     !- Outlet Port
  {401b278d-95c8-40d3-aa0c-e504809f040f}, !- Target Object
  2;                                      !- Inlet Port

OS:PortList,
  {fcb9cf94-2a89-4a6d-b794-8e774bd35762}, !- Handle
  {48e632f4-ca7e-442b-959b-d7717b47e54c}; !- HVAC Component

OS:PortList,
  {9d306309-6439-435c-b797-437dd8aee3f8}, !- Handle
  {48e632f4-ca7e-442b-959b-d7717b47e54c}; !- HVAC Component

OS:PortList,
  {62382ff9-3f98-402d-9cb9-d5fb52e6000f}, !- Handle
  {48e632f4-ca7e-442b-959b-d7717b47e54c}; !- HVAC Component

OS:Sizing:Zone,
  {94756f68-6a3d-4f0c-8419-5c1393f0d4cc}, !- Handle
  {48e632f4-ca7e-442b-959b-d7717b47e54c}, !- Zone or ZoneList Name
  SupplyAirTemperature,                   !- Zone Cooling Design Supply Air Temperature Input Method
  12.8,                                   !- Zone Cooling Design Supply Air Temperature {C}
  11.11,                                  !- Zone Cooling Design Supply Air Temperature Difference {deltaC}
  SupplyAirTemperature,                   !- Zone Heating Design Supply Air Temperature Input Method
  40,                                     !- Zone Heating Design Supply Air Temperature {C}
  11.11,                                  !- Zone Heating Design Supply Air Temperature Difference {deltaC}
  0.0085,                                 !- Zone Cooling Design Supply Air Humidity Ratio {kg-H2O/kg-air}
  0.008,                                  !- Zone Heating Design Supply Air Humidity Ratio {kg-H2O/kg-air}
  ,                                       !- Zone Heating Sizing Factor
  ,                                       !- Zone Cooling Sizing Factor
  DesignDay,                              !- Cooling Design Air Flow Method
  0,                                      !- Cooling Design Air Flow Rate {m3/s}
  ,                                       !- Cooling Minimum Air Flow per Zone Floor Area {m3/s-m2}
  ,                                       !- Cooling Minimum Air Flow {m3/s}
  0,                                      !- Cooling Minimum Air Flow Fraction
  DesignDay,                              !- Heating Design Air Flow Method
  0,                                      !- Heating Design Air Flow Rate {m3/s}
  ,                                       !- Heating Maximum Air Flow per Zone Floor Area {m3/s-m2}
  ,                                       !- Heating Maximum Air Flow {m3/s}
  ,                                       !- Heating Maximum Air Flow Fraction
  No,                                     !- Account for Dedicated Outdoor Air System
  ,                                       !- Dedicated Outdoor Air System Control Strategy
  autosize,                               !- Dedicated Outdoor Air Low Setpoint Temperature for Design {C}
  autosize,                               !- Dedicated Outdoor Air High Setpoint Temperature for Design {C}
  Sensible Load Only No Latent Load,      !- Zone Load Sizing Method
  HumidityRatioDifference,                !- Zone Latent Cooling Design Supply Air Humidity Ratio Input Method
  ,                                       !- Zone Dehumidification Design Supply Air Humidity Ratio {kgWater/kgDryAir}
  0.005,                                  !- Zone Cooling Design Supply Air Humidity Ratio Difference {kgWater/kgDryAir}
  HumidityRatioDifference,                !- Zone Latent Heating Design Supply Air Humidity Ratio Input Method
  ,                                       !- Zone Humidification Design Supply Air Humidity Ratio {kgWater/kgDryAir}
  0.005;                                  !- Zone Humidification Design Supply Air Humidity Ratio Difference {kgWater/kgDryAir}

OS:ZoneHVAC:EquipmentList,
  {ffea4029-c871-460a-88d7-19909cfe11bf}, !- Handle
  Zone HVAC Equipment List 1,             !- Name
  {48e632f4-ca7e-442b-959b-d7717b47e54c}; !- Thermal Zone

OS:Space,
  {b0f30c3b-21f3-45f2-b6dc-a4e2d8f01866}, !- Handle
  Perimeter_ZN_2 Space,                   !- Name
  ,                                       !- Space Type Name
  ,                                       !- Default Construction Set Name
  ,                                       !- Default Schedule Set Name
  0,                                      !- Direction of Relative North {deg}
  0,                                      !- X Origin {m}
  0,                                      !- Y Origin {m}
  0,                                      !- Z Origin {m}
  ,                                       !- Building Story Name
  {48e632f4-ca7e-442b-959b-d7717b47e54c}, !- Thermal Zone Name
  Yes,                                    !- Part of Total Floor Area
  {4a4731f1-014f-417e-8fde-149911368328}; !- Design Specification Outdoor Air Object Name

OS:ThermostatSetpoint:DualSetpoint,
  {f82f2559-b590-4d85-b7c3-9e3432a6f79c}, !- Handle
  Perimeter_ZN_2 Dual SP Control,         !- Name
  {bbbf75b1-c096-4d5c-97b4-ab476185c808}, !- Heating Setpoint Temperature Schedule Name
  {fefa7a61-1d00-4b6c-84a4-6a797721a2da}; !- Cooling Setpoint Temperature Schedule Name

OS:Schedule:Compact,
  {bbbf75b1-c096-4d5c-97b4-ab476185c808}, !- Handle
  HTGSETP_SCH_NO_OPTIMUM_w_SB,            !- Name
  {9df8153d-e075-4356-911c-51cd004e6c74}, !- Schedule Type Limits Name
  Through: 12/31,                         !- Field 1
  For: Weekdays,                          !- Field 2
  Until: 01:00,                           !- Field 3
  15.56,                                  !- Field 4
  Until: 02:00,                           !- Field 5
  15.56,                                  !- Field 6
  Until: 03:00,                           !- Field 7
  15.56,                                  !- Field 8
  Until: 04:00,                           !- Field 9
  15.56,                                  !- Field 10
  Until: 05:00,                           !- Field 11
  15.56,                                  !- Field 12
  Until: 06:00,                           !- Field 13
  15.56,                                  !- Field 14
  Until: 07:00,                           !- Field 15
  21.11,                                  !- Field 16
  Until: 08:00,                           !- Field 17
  21.11,                                  !- Field 18
  Until: 09:00,                           !- Field 19
  21.11,                                  !- Field 20
  Until: 10:00,                           !- Field 21
  21.11,                                  !- Field 22
  Until: 11:00,                           !- Field 23
  20.5544444444444,                       !- Field 24
  Until: 12:00,                           !- Field 25
  21.11,                                  !- Field 26
  Until: 13:00,                           !- Field 27
  20.5544444444444,                       !- Field 28
  Until: 14:00,                           !- Field 29
  21.11,                                  !- Field 30
  Until: 15:00,                           !- Field 31
  20.5544444444444,                       !- Field 32
  Until: 16:00,                           !- Field 33
  21.11,                                  !- Field 34
  Until: 17:00,                           !- Field 35
  21.11,                                  !- Field 36
  Until: 18:00,                           !- Field 37
  21.11,                                  !- Field 38
  Until: 19:00,                           !- Field 39
  21.11,                                  !- Field 40
  Until: 20:00,                           !- Field 41
  15.56,                                  !- Field 42
  Until: 21:00,                           !- Field 43
  15.56,                                  !- Field 44
  Until: 22:00,                           !- Field 45
  15.56,                                  !- Field 46
  Until: 23:00,                           !- Field 47
  15.56,                                  !- Field 48
  Until: 24:00,                           !- Field 49
  15.56,                                  !- Field 50
  For: Weekends,                          !- Field 51
  Until: 01:00,                           !- Field 52
  15.56,                                  !- Field 53
  Until: 02:00,                           !- Field 54
  15.56,                                  !- Field 55
  Until: 03:00,                           !- Field 56
  15.56,                                  !- Field 57
  Until: 04:00,                           !- Field 58
  15.56,                                  !- Field 59
  Until: 05:00,                           !- Field 60
  15.56,                                  !- Field 61
  Until: 06:00,                           !- Field 62
  15.56,                                  !- Field 63
  Until: 07:00,                           !- Field 64
  15.56,                                  !- Field 65
  Until: 08:00,                           !- Field 66
  15.56,                                  !- Field 67
  Until: 09:00,                           !- Field 68
  15.56,                                  !- Field 69
  Until: 10:00,                           !- Field 70
  15.56,                                  !- Field 71
  Until: 11:00,                           !- Field 72
  15.56,                                  !- Field 73
  Until: 12:00,                           !- Field 74
  15.56,                                  !- Field 75
  Until: 13:00,                           !- Field 76
  15.56,                                  !- Field 77
  Until: 14:00,                           !- Field 78
  15.56,                                  !- Field 79
  Until: 15:00,                           !- Field 80
  15.56,                                  !- Field 81
  Until: 16:00,                           !- Field 82
  15.56,                                  !- Field 83
  Until: 17:00,                           !- Field 84
  15.56,                                  !- Field 85
  Until: 18:00,                           !- Field 86
  15.56,                                  !- Field 87
  Until: 19:00,                           !- Field 88
  15.56,                                  !- Field 89
  Until: 20:00,                           !- Field 90
  15.56,                                  !- Field 91
  Until: 21:00,                           !- Field 92
  15.56,                                  !- Field 93
  Until: 22:00,                           !- Field 94
  15.56,                                  !- Field 95
  Until: 23:00,                           !- Field 96
  15.56,                                  !- Field 97
  Until: 24:00,                           !- Field 98
  15.56,                                  !- Field 99
  For: Holiday,                           !- Field 100
  Until: 24:00,                           !- Field 101
  15.56,                                  !- Field 102
  For: WinterDesignDay,                   !- Field 103
  Until: 24:00,                           !- Field 104
  21.11,                                  !- Field 105
  For: SummerDesignDay,                   !- Field 106
  Until: 24:00,                           !- Field 107
  15.56,                                  !- Field 108
  For: CustomDay1,                        !- Field 109
  Until: 24:00,                           !- Field 110
  15.56,                                  !- Field 111
  For: CustomDay2,                        !- Field 112
  Until: 24:00,                           !- Field 113
  15.56;                                  !- Field 114

OS:ScheduleTypeLimits,
  {9df8153d-e075-4356-911c-51cd004e6c74}, !- Handle
  Temperature,                            !- Name
  -60,                                    !- Lower Limit Value
  200,                                    !- Upper Limit Value
  CONTINUOUS,                             !- Numeric Type
  Temperature;                            !- Unit Type

OS:Schedule:Compact,
  {fefa7a61-1d00-4b6c-84a4-6a797721a2da}, !- Handle
  CLGSETP_SCH_NO_OPTIMUM_w_SB,            !- Name
  {9df8153d-e075-4356-911c-51cd004e6c74}, !- Schedule Type Limits Name
  Through: 12/31,                         !- Field 1
  For: Weekdays,                          !- Field 2
  Until: 01:00,                           !- Field 3
  29.44,                                  !- Field 4
  Until: 02:00,                           !- Field 5
  29.44,                                  !- Field 6
  Until: 03:00,                           !- Field 7
  29.44,                                  !- Field 8
  Until: 04:00,                           !- Field 9
  29.44,                                  !- Field 10
  Until: 05:00,                           !- Field 11
  29.44,                                  !- Field 12
  Until: 06:00,                           !- Field 13
  29.44,                                  !- Field 14
  Until: 07:00,                           !- Field 15
  23.89,                                  !- Field 16
  Until: 08:00,                           !- Field 17
  23.89,                                  !- Field 18
  Until: 09:00,                           !- Field 19
  23.89,                                  !- Field 20
  Until: 10:00,                           !- Field 21
  23.89,                                  !- Field 22
  Until: 11:00,                           !- Field 23
  24.4455555555556,                       !- Field 24
  Until: 12:00,                           !- Field 25
  23.89,                                  !- Field 26
  Until: 13:00,                           !- Field 27
  24.4455555555556,                       !- Field 28
  Until: 14:00,                           !- Field 29
  23.89,                                  !- Field 30
  Until: 15:00,                           !- Field 31
  24.4455555555556,                       !- Field 32
  Until: 16:00,                           !- Field 33
  23.89,                                  !- Field 34
  Until: 17:00,                           !- Field 35
  23.89,                                  !- Field 36
  Until: 18:00,                           !- Field 37
  23.89,                                  !- Field 38
  Until: 19:00,                           !- Field 39
  29.44,                                  !- Field 40
  Until: 20:00,                           !- Field 41
  29.44,                                  !- Field 42
  Until: 21:00,                           !- Field 43
  29.44,                                  !- Field 44
  Until: 22:00,                           !- Field 45
  29.44,                                  !- Field 46
  Until: 23:00,                           !- Field 47
  29.44,                                  !- Field 48
  Until: 24:00,                           !- Field 49
  29.44,                                  !- Field 50
  For: Weekends,                          !- Field 51
  Until: 01:00,                           !- Field 52
  29.44,                                  !- Field 53
  Until: 02:00,                           !- Field 54
  29.44,                                  !- Field 55
  Until: 03:00,                           !- Field 56
  29.44,                                  !- Field 57
  Until: 04:00,                           !- Field 58
  29.44,                                  !- Field 59
  Until: 05:00,                           !- Field 60
  29.44,                                  !- Field 61
  Until: 06:00,                           !- Field 62
  29.44,                                  !- Field 63
  Until: 07:00,                           !- Field 64
  29.44,                                  !- Field 65
  Until: 08:00,                           !- Field 66
  29.44,                                  !- Field 67
  Until: 09:00,                           !- Field 68
  29.44,                                  !- Field 69
  Until: 10:00,                           !- Field 70
  29.44,                                  !- Field 71
  Until: 11:00,                           !- Field 72
  29.44,                                  !- Field 73
  Until: 12:00,                           !- Field 74
  29.44,                                  !- Field 75
  Until: 13:00,                           !- Field 76
  29.44,                                  !- Field 77
  Until: 14:00,                           !- Field 78
  29.44,                                  !- Field 79
  Until: 15:00,                           !- Field 80
  29.44,                                  !- Field 81
  Until: 16:00,                           !- Field 82
  29.44,                                  !- Field 83
  Until: 17:00,                           !- Field 84
  29.44,                                  !- Field 85
  Until: 18:00,                           !- Field 86
  29.44,                                  !- Field 87
  Until: 19:00,                           !- Field 88
  29.44,                                  !- Field 89
  Until: 20:00,                           !- Field 90
  29.44,                                  !- Field 91
  Until: 21:00,                           !- Field 92
  29.44,                                  !- Field 93
  Until: 22:00,                           !- Field 94
  29.44,                                  !- Field 95
  Until: 23:00,                           !- Field 96
  29.44,                                  !- Field 97
  Until: 24:00,                           !- Field 98
  29.44,                                  !- Field 99
  For: Holiday,                           !- Field 100
  Until: 24:00,                           !- Field 101
  29.44,                                  !- Field 102
  For: WinterDesignDay,                   !- Field 103
  Until: 24:00,                           !- Field 104
  29.44,                                  !- Field 105
  For: SummerDesignDay,                   !- Field 106
  Until: 24:00,                           !- Field 107
  23.89,                                  !- Field 108
  For: CustomDay1,                        !- Field 109
  Until: 24:00,                           !- Field 110
  29.44,                                  !- Field 111
  For: CustomDay2,                        !- Field 112
  Until: 24:00,                           !- Field 113
  29.44;                                  !- Field 114

OS:Schedule:Compact,
  {341c53bb-d699-4821-8de0-b27025f7f48b}, !- Handle
  HVACOperationSchd,                      !- Name
  {910568f5-8878-40cb-ba43-9883f0d06e0d}, !- Schedule Type Limits Name
  Through: 12/31,                         !- Field 1
  For: Weekdays SummerDesignDay,          !- Field 2
  Until: 06:00,                           !- Field 3
  0.0,                                    !- Field 4
  Until: 19:00,                           !- Field 5
  1.0,                                    !- Field 6
  Until: 24:00,                           !- Field 7
  0.0,                                    !- Field 8
  For: Weedends WinterDesignDay,          !- Field 9
  Until: 24:00,                           !- Field 10
  0.0,                                    !- Field 11
  For: Holidays AllOtherDays,             !- Field 12
  Until: 24:00,                           !- Field 13
  0.0;                                    !- Field 14

OS:ScheduleTypeLimits,
  {910568f5-8878-40cb-ba43-9883f0d06e0d}, !- Handle
  On/Off,                                 !- Name
  0,                                      !- Lower Limit Value
  1,                                      !- Upper Limit Value
  DISCRETE,                               !- Numeric Type
  Availability;                           !- Unit Type

OS:HeatBalanceAlgorithm,
  {6cb4b492-179b-461c-96fa-d571171a68cb}, !- Handle
  ConductionTransferFunction,             !- Algorithm
  200;                                    !- Surface Temperature Upper Limit {C}

OS:Timestep,
  {04d1849f-c8a2-46e2-b8e1-34ec3a24bc40}, !- Handle
  6;                                      !- Number of Timesteps per Hour

OS:ConvergenceLimits,
  {aec10525-6885-4064-923e-842867c3ff58}, !- Handle
  1,                                      !- Minimum System Timestep {minutes}
  20;                                     !- Maximum HVAC Iterations

OS:RunPeriod,
  {f77e2fca-32c7-4243-8f40-2234e57e1dae}, !- Handle
  RUNPERIOD 1,                            !- Name
  1,                                      !- Begin Month
  1,                                      !- Begin Day of Month
  12,                                     !- End Month
  31,                                     !- End Day of Month
  No,                                     !- Use Weather File Holidays and Special Days
  No,                                     !- Use Weather File Daylight Saving Period
  No,                                     !- Apply Weekend Holiday Rule
  Yes,                                    !- Use Weather File Rain Indicators
  Yes,                                    !- Use Weather File Snow Indicators
  ;                                       !- Number of Times Runperiod to be Repeated

OS:YearDescription,
  {903abc0a-5233-4af8-b613-0e5b948fb015}, !- Handle
  ,                                       !- Calendar Year
  Sunday;                                 !- Day of Week for Start Day

OS:RunPeriodControl:SpecialDays,
  {3665f488-b8a7-4b42-b53d-fd93aa6055d7}, !- Handle
  New Years Day,                          !- Name
  January 1,                              !- Start Date
  1,                                      !- Duration {days}
  Holiday;                                !- Special Day Type

OS:RunPeriodControl:SpecialDays,
  {33d3539b-42d4-4f67-b58b-1b1c02e0e096}, !- Handle
  Veterans Day,                           !- Name
  November 11,                            !- Start Date
  1,                                      !- Duration {days}