
OS:Version,
  {acbd9782-c723-4272-a96a-71c06d559df8}, !- Handle
  3.8.0;                                  !- Version Identifier

OS:Material,
  {a8cd86b4-15db-4534-b892-634fda92f070}, !- Handle
  16mm gypsum board,                      !- Name
  MediumSmooth,                           !- Roughness
  0.016,                                  !- Thickness {m}
  0.16,                                   !- Conductivity {W/m-K}
  800,                                    !- Density {kg/m3}
  1090;                                   !- Specific Heat {J/kg-K}

OS:Material:NoMass,
  {e351a0e5-87bd-4a26-83dd-62bc65ae5451}, !- Handle
  Roof Insulation,                        !- Name
  MediumSmooth,                           !- Roughness
  8.1,                                    !- Thermal Resistance {m2-K/W}
  0.9,                                    !- Thermal Absorptance
  0.7,                                    !- Solar Absorptance
  0.7;                                    !- Visible Absorptance

OS:Material,
  {5e506027-c32c-412e-8205-9be6e3aeaa55}, !- Handle
  Material 2,                             !- Name
  Smooth,                                 !- Roughness
  0.0008,                                 !- Thickness {m}
  45.28,                                  !- Conductivity {W/m-K}
  7824,                                   !- Density {kg/m3}
  500;                                    !- Specific Heat {J/kg-K}

OS:Construction,
  {b50a7f7f-46d4-40ec-bccc-b3f525e023ee}, !- Handle
  roof,                                   !- Name
  {71733c9c-289f-4e30-a92e-311020a14592}, !- Surface Rendering Name
  {e351a0e5-87bd-4a26-83dd-62bc65ae5451}, !- Layer 1
  {a8cd86b4-15db-4534-b892-634fda92f070}; !- Layer 2

OS:Material,
  {9e0ff15b-54cb-4527-8e0e-ad477a2dd888}, !- Handle
  100mm normal weight concrete floor,     !- Name
  MediumRough,                            !- Roughness
  0.1,                                    !- Thickness {m}
  2.31,                                   !- Conductivity {W/m-K}
  2322,                                   !- Density {kg/m3}
  832;                                    !- Specific Heat {J/kg-K}

OS:Material:NoMass,
  {85e78a9c-f126-45df-8ca4-ecb1abcea5bd}, !- Handle
  floor insulation,                       !- Name
  MediumSmooth,                           !- Roughness
  4.13,                                   !- Thermal Resistance {m2-K/W}
  0.9,                                    !- Thermal Absorptance
  0.7,                                    !- Solar Absorptance
  0.7;                                    !- Visible Absorptance

OS:Construction,
  {128cf31a-7a92-4fb7-8f39-750eb457c7ab}, !- Handle
  floor,                                  !- Name
  {d1761c85-0e9c-44b6-ad98-15ecd9e99c47}, !- Surface Rendering Name
  {85e78a9c-f126-45df-8ca4-ecb1abcea5bd}, !- Layer 1
  {9e0ff15b-54cb-4527-8e0e-ad477a2dd888}; !- Layer 2

OS:WindowMaterial:SimpleGlazingSystem,
  {c9c7488b-4ca5-4cfb-b63c-a09c69025fd4}, !- Handle
  glazing 1,                              !- Name
  2.06120838,                             !- U-Factor {W/m2-K}
  0.359,                                  !- Solar Heat Gain Coefficient
  0.3949;                                 !- Visible Transmittance

OS:Construction,
  {eafa945f-f772-49b6-be4b-994cb5bed4d4}, !- Handle
  window,                                 !- Name
  {363b946d-418c-487b-8eed-421837090de2}, !- Surface Rendering Name
  {c9c7488b-4ca5-4cfb-b63c-a09c69025fd4}; !- Layer 1

OS:BuildingStory,
  {135545d6-e1d9-4d91-b126-05d944d826e4}, !- Handle
  Level,                                  !- Name
  ,                                       !- Nominal Z Coordinate {m}
  ,                                       !- Nominal Floor to Floor Height {m}
  ,                                       !- Default Construction Set Name
  ,                                       !- Default Schedule Set Name
  {d4acc6e7-a1bf-4c7b-9287-3abbbef14489}; !- Group Rendering Name

OS:Space,
  {dbae0731-d632-4ec6-9525-f36f87795d0e}, !- Handle
  Space,                                  !- Name
  ,                                       !- Space Type Name
  ,                                       !- Default Construction Set Name
  ,                                       !- Default Schedule Set Name
  ,                                       !- Direction of Relative North {deg}
  ,                                       !- X Origin {m}
  ,                                       !- Y Origin {m}
  ,                                       !- Z Origin {m}
  {135545d6-e1d9-4d91-b126-05d944d826e4}, !- Building Story Name
  {88af3fa9-8115-4b90-8cc2-51c8d76fa6e3}, !- Thermal Zone Name
  ,                                       !- Part of Total Floor Area
  {6aa10a63-739b-4bb1-94eb-c749e6f4a5aa}, !- Design Specification Outdoor Air Object Name
  ,                                       !- Building Unit Name
  ,                                       !- Volume {m3}
  ,                                       !- Ceiling Height {m}
  Autocalculate;                          !- Floor Area {m2}

OS:ThermalZone,
  {88af3fa9-8115-4b90-8cc2-51c8d76fa6e3}, !- Handle
  Space_tzone,                            !- Name
  ,                                       !- Multiplier
  ,                                       !- Ceiling Height {m}
  ,                                       !- Volume {m3}
  ,                                       !- Floor Area {m2}
  ,                                       !- Zone Inside Convection Algorithm
  ,                                       !- Zone Outside Convection Algorithm
  ,                                       !- Zone Conditioning Equipment List Name
  {45786134-3a64-47e9-9478-f5952b0eb9e0}, !- Zone Air Inlet Port List
  {334ef3cf-704d-46ab-843d-477a01ddbefc}, !- Zone Air Exhaust Port List
  {0cc50c69-4be9-4cbb-b13e-b1ce533de062}, !- Zone Air Node Name
  {bd1d85ab-328c-4b4d-be35-b5fc0b4defa7}, !- Zone Return Air Port List
  ,                                       !- Primary Daylighting Control Name
  ,                                       !- Fraction of Zone Controlled by Primary Daylighting Control
  ,                                       !- Secondary Daylighting Control Name
  ,                                       !- Fraction of Zone Controlled by Secondary Daylighting Control
  ,                                       !- Illuminance Map Name
  {1bbd18cd-fbea-49ce-949a-f1d53c5599d6}, !- Group Rendering Name
  {48d61986-2c2d-45e3-82ad-5374f1784e09}, !- Thermostat Name
  Yes;                                    !- Use Ideal Air Loads

OS:Node,
  {5caee34a-d950-40bb-b235-635739679196}, !- Handle
  Node 1,                                 !- Name
  {0cc50c69-4be9-4cbb-b13e-b1ce533de062}, !- Inlet Port
  ;                                       !- Outlet Port

OS:Connection,
  {0cc50c69-4be9-4cbb-b13e-b1ce533de062}, !- Handle
  {88af3fa9-8115-4b90-8cc2-51c8d76fa6e3}, !- Source Object
  11,                                     !- Outlet Port
  {5caee34a-d950-40bb-b235-635739679196}, !- Target Object
  2;                                      !- Inlet Port

OS:PortList,
  {45786134-3a64-47e9-9478-f5952b0eb9e0}, !- Handle
  {88af3fa9-8115-4b90-8cc2-51c8d76fa6e3}; !- HVAC Component

OS:PortList,
  {334ef3cf-704d-46ab-843d-477a01ddbefc}, !- Handle
  {88af3fa9-8115-4b90-8cc2-51c8d76fa6e3}; !- HVAC Component

OS:PortList,
  {bd1d85ab-328c-4b4d-be35-b5fc0b4defa7}, !- Handle
  {88af3fa9-8115-4b90-8cc2-51c8d76fa6e3}; !- HVAC Component

OS:Sizing:Zone,
  {6f833ba7-4fe8-42fa-a804-bae3905f0916}, !- Handle
  {88af3fa9-8115-4b90-8cc2-51c8d76fa6e3}, !- Zone or ZoneList Name
  SupplyAirTemperature,                   !- Zone Cooling Design Supply Air Temperature Input Method
  14,                                     !- Zone Cooling Design Supply Air Temperature {C}
  11.11,                                  !- Zone Cooling Design Supply Air Temperature Difference {deltaC}
  SupplyAirTemperature,                   !- Zone Heating Design Supply Air Temperature Input Method
  40,                                     !- Zone Heating Design Supply Air Temperature {C}
  11.11,                                  !- Zone Heating Design Supply Air Temperature Difference {deltaC}
  0.0085,                                 !- Zone Cooling Design Supply Air Humidity Ratio {kg-H2O/kg-air}
  0.008,                                  !- Zone Heating Design Supply Air Humidity Ratio {kg-H2O/kg-air}
  ,                                       !- Zone Heating Sizing Factor
  ,                                       !- Zone Cooling Sizing Factor
  DesignDay,                              !- Cooling Design Air Flow Method
  ,                                       !- Cooling Design Air Flow Rate {m3/s}
  ,                                       !- Cooling Minimum Air Flow per Zone Floor Area {m3/s-m2}
  ,                                       !- Cooling Minimum Air Flow {m3/s}
  ,                                       !- Cooling Minimum Air Flow Fraction
  DesignDay,                              !- Heating Design Air Flow Method
  ,                                       !- Heating Design Air Flow Rate {m3/s}
  ,                                       !- Heating Maximum Air Flow per Zone Floor Area {m3/s-m2}
  ,                                       !- Heating Maximum Air Flow {m3/s}
  ,                                       !- Heating Maximum Air Flow Fraction
  No,                                     !- Account for Dedicated Outdoor Air System
  NeutralSupplyAir,                       !- Dedicated Outdoor Air System Control Strategy
  autosize,                               !- Dedicated Outdoor Air Low Setpoint Temperature for Design {C}
  autosize,                               !- Dedicated Outdoor Air High Setpoint Temperature for Design {C}
  Sensible Load Only No Latent Load,      !- Zone Load Sizing Method
  HumidityRatioDifference,                !- Zone Latent Cooling Design Supply Air Humidity Ratio Input Method
  ,                                       !- Zone Dehumidification Design Supply Air Humidity Ratio {kgWater/kgDryAir}
  0.005,                                  !- Zone Cooling Design Supply Air Humidity Ratio Difference {kgWater/kgDryAir}
  HumidityRatioDifference,                !- Zone Latent Heating Design Supply Air Humidity Ratio Input Method
  ,                                       !- Zone Humidification Design Supply Air Humidity Ratio {kgWater/kgDryAir}
  0.005;                                  !- Zone Humidification Design Supply Air Humidity Ratio Difference {kgWater/kgDryAir}

OS:ZoneHVAC:EquipmentList,
  {80d1eb8b-3588-446b-8920-e1ea34b4c6e2}, !- Handle
  Zone HVAC Equipment List 1,             !- Name
  {88af3fa9-8115-4b90-8cc2-51c8d76fa6e3}; !- Thermal Zone

OS:Surface,
  {23d3cd18-f292-4f28-a8ec-221d839fcedf}, !- Handle
  Space_envelope_0,                       !- Name
  Wall,                                   !- Surface Type
  {b11752f1-4107-4081-a463-6a3852cb8cf3}, !- Construction Name
  {dbae0731-d632-4ec6-9525-f36f87795d0e}, !- Space Name
  Outdoors,                               !- Outside Boundary Condition
  ,                                       !- Outside Boundary Condition Object
  SunExposed,                             !- Sun Exposure
  WindExposed,                            !- Wind Exposure
  ,                                       !- View Factor to Ground
  ,                                       !- Number of Vertices
  0.1, 4.9, 5.1,                          !- X,Y,Z Vertex 1 {m}
  0.1, 4.9, -0.1,                         !- X,Y,Z Vertex 2 {m}
  0.1, 0.1, -0.1,                         !- X,Y,Z Vertex 3 {m}
  0.1, 0.1, 5.1;                          !- X,Y,Z Vertex 4 {m}

OS:Surface,
  {be6053be-4bb6-46de-a5d8-b5999f16674d}, !- Handle
  Space_envelope_1,                       !- Name
  Wall,                                   !- Surface Type
  {b11752f1-4107-4081-a463-6a3852cb8cf3}, !- Construction Name
  {dbae0731-d632-4ec6-9525-f36f87795d0e}, !- Space Name
  Outdoors,                               !- Outside Boundary Condition
  ,                                       !- Outside Boundary Condition Object
  SunExposed,                             !- Sun Exposure
  WindExposed,                            !- Wind Exposure
  ,                                       !- View Factor to Ground
  ,                                       !- Number of Vertices
  0.1, 0.1, 5.1,                          !- X,Y,Z Vertex 1 {m}
  0.1, 0.1, -0.1,                         !- X,Y,Z Vertex 2 {m}
  4.9, 0.1, -0.1,                         !- X,Y,Z Vertex 3 {m}
  4.9, 0.1, 5.1;                          !- X,Y,Z Vertex 4 {m}

OS:SubSurface,
  {18cede0e-8d5d-4643-9927-4c36319ffa8d}, !- Handle
  Window,                                 !- Name
  FixedWindow,                            !- Sub Surface Type
  {eafa945f-f772-49b6-be4b-994cb5bed4d4}, !- Construction Name
  {be6053be-4bb6-46de-a5d8-b5999f16674d}, !- Surface Name
  ,                                       !- Outside Boundary Condition Object
  ,                                       !- View Factor to Ground
  ,                                       !- Frame and Divider Name
  ,                                       !- Multiplier
  ,                                       !- Number of Vertices
  1.75, 0.1, 1.75,                        !- X,Y,Z Vertex 1 {m}
  3.25, 0.1, 1.75,                        !- X,Y,Z Vertex 2 {m}
  3.25, 0.1, 3.25,                        !- X,Y,Z Vertex 3 {m}
  1.75, 0.1, 3.25;                        !- X,Y,Z Vertex 4 {m}

OS:Surface,
  {a71ab624-644f-408d-9f3b-8e1ab444883f}, !- Handle
  Space_envelope_2,                       !- Name
  Floor,                                  !- Surface Type
  {128cf31a-7a92-4fb7-8f39-750eb457c7ab}, !- Construction Name
  {dbae0731-d632-4ec6-9525-f36f87795d0e}, !- Space Name
  Ground,                                 !- Outside Boundary Condition
  ,                                       !- Outside Boundary Condition Object
  NoSun,                                  !- Sun Exposure
  NoWind,                                 !- Wind Exposure
  ,                                       !- View Factor to Ground
  ,                                       !- Number of Vertices
  0.1, 0.1, -0.1,                         !- X,Y,Z Vertex 1 {m}
  0.1, 4.9, -0.1,                         !- X,Y,Z Vertex 2 {m}
  4.9, 4.9, -0.1,                         !- X,Y,Z Vertex 3 {m}
  4.9, 0.1, -0.1;                         !- X,Y,Z Vertex 4 {m}

OS:Surface,
  {777457e7-24e4-48af-af61-dc1c1903206b}, !- Handle
  Space_envelope_3,                       !- Name
  RoofCeiling,                            !- Surface Type
  {b50a7f7f-46d4-40ec-bccc-b3f525e023ee}, !- Construction Name
  {dbae0731-d632-4ec6-9525-f36f87795d0e}, !- Space Name
  Outdoors,                               !- Outside Boundary Condition
  ,                                       !- Outside Boundary Condition Object
  SunExposed,                             !- Sun Exposure
  WindExposed,                            !- Wind Exposure
  ,                                       !- View Factor to Ground
  ,                                       !- Number of Vertices
  4.9, 4.9, 5.1,                          !- X,Y,Z Vertex 1 {m}
  0.1, 4.9, 5.1,                          !- X,Y,Z Vertex 2 {m}
  0.1, 0.1, 5.1,                          !- X,Y,Z Vertex 3 {m}
  4.9, 0.1, 5.1;                          !- X,Y,Z Vertex 4 {m}

OS:Surface,
  {21d0ff58-d015-4cfb-9e31-de61ff55bc73}, !- Handle
  Space_envelope_4,                       !- Name
  Wall,                                   !- Surface Type
  {b11752f1-4107-4081-a463-6a3852cb8cf3}, !- Construction Name
  {dbae0731-d632-4ec6-9525-f36f87795d0e}, !- Space Name
  Outdoors,                               !- Outside Boundary Condition
  ,                                       !- Outside Boundary Condition Object
  SunExposed,                             !- Sun Exposure
  WindExposed,                            !- Wind Exposure
  ,                                       !- View Factor to Ground
  ,                                       !- Number of Vertices
  4.9, 4.9, 5.1,                          !- X,Y,Z Vertex 1 {m}
  4.9, 4.9, -0.1,                         !- X,Y,Z Vertex 2 {m}
  0.1, 4.9, -0.1,                         !- X,Y,Z Vertex 3 {m}
  0.1, 4.9, 5.1;                          !- X,Y,Z Vertex 4 {m}

OS:Surface,
  {5a2d3cc6-05bc-4b78-9431-e9c592bc4be3}, !- Handle
  Space_envelope_5,                       !- Name
  Wall,                                   !- Surface Type
  {b11752f1-4107-4081-a463-6a3852cb8cf3}, !- Construction Name
  {dbae0731-d632-4ec6-9525-f36f87795d0e}, !- Space Name
  Outdoors,                               !- Outside Boundary Condition
  ,                                       !- Outside Boundary Condition Object
  SunExposed,                             !- Sun Exposure
  WindExposed,                            !- Wind Exposure
  ,                                       !- View Factor to Ground
  ,                                       !- Number of Vertices
  4.9, 0.1, 5.1,                          !- X,Y,Z Vertex 1 {m}
  4.9, 0.1, -0.1,                         !- X,Y,Z Vertex 2 {m}
  4.9, 4.9, -0.1,                         !- X,Y,Z Vertex 3 {m}
  4.9, 4.9, 5.1;                          !- X,Y,Z Vertex 4 {m}

OS:ElectricEquipment:Definition,
  {bdb9b7e5-7b83-43eb-b6ef-faeb7fadff24}, !- Handle
  Electric Equipment Definition 1,        !- Name
  Watts/Area,                             !- Design Level Calculation Method
  ,                                       !- Design Level {W}
  6.78,                                   !- Watts per Space Floor Area {W/m2}
  ;                                       !- Watts per Person {W/person}

OS:ElectricEquipment,
  {5af45ef3-b391-495c-a916-e951ce318d9d}, !- Handle
  Electric Equipment 1,                   !- Name
  {bdb9b7e5-7b83-43eb-b6ef-faeb7fadff24}, !- Electric Equipment Definition Name
  {dbae0731-d632-4ec6-9525-f36f87795d0e}, !- Space or SpaceType Name
  {5991a50d-96b8-43ed-9d00-a0f21e0a8b7d}, !- Schedule Name
  1,                                      !- Multiplier
  General;                                !- End-Use Subcategory

OS:People:Definition,
  {cf99578a-a5e5-48af-999e-87a8802e4083}, !- Handle
  People Definition 1,                    !- Name
  Area/Person,                            !- Number of People Calculation Method
  ,                                       !- Number of People {people}
  ,                                       !- People per Space Floor Area {person/m2}
  12,                                     !- Space Floor Area per Person {m2/person}
  0.3;                                    !- Fraction Radiant

OS:People,
  {c0ae7773-b697-4b81-ad11-ff0f1ed50f7d}, !- Handle
  People 1,                               !- Name
  {cf99578a-a5e5-48af-999e-87a8802e4083}, !- People Definition Name
  {dbae0731-d632-4ec6-9525-f36f87795d0e}, !- Space or SpaceType Name
  {a6f04be7-f3a7-4af8-9dca-fcf09d423396}, !- Number of People Schedule Name
  {6c6501f3-53f7-4371-b640-e549a8fa98b1}, !- Activity Level Schedule Name
  ,                                       !- Surface Name/Angle Factor List Name
  ,                                       !- Work Efficiency Schedule Name
  ,                                       !- Clothing Insulation Schedule Name
  ,                                       !- Air Velocity Schedule Name
  1;                                      !- Multiplier

OS:Lights:Definition,
  {4cfb5e55-14c8-4585-a357-aad8f224ed97}, !- Handle
  Lights Definition 1,                    !- Name
  Watts/Area,                             !- Design Level Calculation Method
  ,                                       !- Lighting Level {W}
  6.18,                                   !- Watts per Space Floor Area {W/m2}
  ;                                       !- Watts per Person {W/person}

OS:Lights,
  {f56b6291-06d5-41a8-bc73-f1f5e1db8dc8}, !- Handle
  Lights 1,                               !- Name
  {4cfb5e55-14c8-4585-a357-aad8f224ed97}, !- Lights Definition Name
  {dbae0731-d632-4ec6-9525-f36f87795d0e}, !- Space or SpaceType Name
  {96425913-0dd1-4dd1-b614-18932a7d8fa7}, !- Schedule Name
  1,                                      !- Fraction Replaceable
  1,                                      !- Multiplier
  General;                                !- End-Use Subcategory

OS:DesignSpecification:OutdoorAir,
  {6aa10a63-739b-4bb1-94eb-c749e6f4a5aa}, !- Handle
  Design Specification Outdoor Air 1,     !- Name
  ,                                       !- Outdoor Air Method
  ,                                       !- Outdoor Air Flow per Person {m3/s-person}
  0,                                      !- Outdoor Air Flow per Floor Area {m3/s-m2}
  ,                                       !- Outdoor Air Flow Rate {m3/s}
  4,                                      !- Outdoor Air Flow Air Changes per Hour {1/hr}
  ;                                       !- Outdoor Air Flow Rate Fraction Schedule Name

OS:ShadingSurfaceGroup,
  {db001ba4-5c90-4e90-9909-5da60f4eede6}, !- Handle
  Shading Surface Group 1,                !- Name
  Building;                               !- Shading Surface Type

OS:Site,
  {1b59e898-66a6-415c-92b4-bd8c94a50402}, !- Handle
  New.York-Downtown.Manhattan.Heli,       !- Name
  40.701,                                 !- Latitude {deg}
  -74.009,                                !- Longitude {deg}
  -5,                                     !- Time Zone {hr}
  2.1,                                    !- Elevation {m}
  ;                                       !- Terrain

OS:YearDescription,
  {4b2c46aa-c409-429b-8be4-737500332b9a}, !- Handle
  ,                                       !- Calendar Year
  Sunday,                                 !- Day of Week for Start Day
  ;                                       !- Is Leap Year

OS:ClimateZones,
  {201f2c82-60bb-48c4-906d-eadcb7bcadcb}, !- Handle
  ASHRAE,                                 !- Climate Zone Institution Name 1
  ANSI/ASHRAE Standard 169,               !- Climate Zone Document Name 1
  2006,                                   !- Climate Zone Document Year 1
  ,                                       !- Climate Zone Value 1
  CEC,                                    !- Climate Zone Institution Name 2
  California Climate Zone Descriptions,   !- Climate Zone Document Name 2
  1995,                                   !- Climate Zone Document Year 2
  ;                                       !- Climate Zone Value 2

OS:Building,
  {9721b321-7a28-4c7d-bec2-9f823e25774f}, !- Handle
  Building 1,                             !- Name
  ,                                       !- Building Sector Type
  ,                                       !- North Axis {deg}
  ,                                       !- Nominal Floor to Floor Height {m}
  ,                                       !- Space Type Name
  ,                                       !- Default Construction Set Name
  ;                                       !- Default Schedule Set Name

OS:Facility,
  {3a822abb-6ce6-4ba7-9968-d2f8fc344988}; !- Handle

OS:SimulationControl,
  {ea7f83c1-b29b-45b5-9c4c-568d4c036659}; !- Handle

OS:Sizing:Parameters,
  {285969a8-26c1-459b-b47c-786a5e78bd3a}, !- Handle
  1.25,                                   !- Heating Sizing Factor
  1.15;                                   !- Cooling Sizing Factor

OS:Timestep,
  {751c586f-9a08-487c-bad6-799b06352e31}, !- Handle
  6;                                      !- Number of Timesteps per Hour

OS:ShadowCalculation,
  {afb10883-c8dd-4268-8e0f-962dcd623d31}, !- Handle
  PolygonClipping,                        !- Shading Calculation Method
  ,                                       !- Shading Calculation Update Frequency Method
  20,                                     !- Shading Calculation Update Frequency
  15000,                                  !- Maximum Figures in Shadow Overlap Calculations
  ,                                       !- Polygon Clipping Algorithm
  512,                                    !- Pixel Counting Resolution
  ,                                       !- Sky Diffuse Modeling Algorithm
  No,                                     !- Output External Shading Calculation Results
  No,                                     !- Disable Self-Shading Within Shading Zone Groups
  No;                                     !- Disable Self-Shading From Shading Zone Groups to Other Zones

OS:HeatBalanceAlgorithm,
  {1c4cd03b-763e-4134-9767-329c63e778ea}, !- Handle
  ConductionTransferFunction,             !- Algorithm
  200;                                    !- Surface Temperature Upper Limit {C}

OS:RunPeriod,
  {b67f3e23-9c86-4b5e-a8f8-844be876d794}, !- Handle
  Run Period 1,                           !- Name
  1,                                      !- Begin Month
  1,                                      !- Begin Day of Month
  12,                                     !- End Month
  31,                                     !- End Day of Month
  ,                                       !- Use Weather File Holidays and Special Days
  ,                                       !- Use Weather File Daylight Saving Period
  ,                                       !- Apply Weekend Holiday Rule
  ,                                       !- Use Weather File Rain Indicators
  ,                                       !- Use Weather File Snow Indicators
  ;                                       !- Number of Times Runperiod to be Repeated

OS:LifeCycleCost:Parameters,
  {b3995b91-5780-4211-af84-6f48a3de6f35}, !- Handle
  FEMP,                                   !- Analysis Type
  ,                                       !- Discounting Convention
  ,                                       !- Inflation Approach
  ,                                       !- Real Discount Rate
  ,                                       !- Nominal Discount Rate
  ,                                       !- Inflation
  ,                                       !- Base Date Month
  ,                                       !- Base Date Year
  ,                                       !- Service Date Month
  ,                                       !- Service Date Year
  ,                                       !- Length of Study Period in Years
  ,                                       !- Tax Rate
  ,                                       !- Depreciation Method
  Yes;                                    !- Use NIST Fuel Escalation Rates

OS:StandardsInformation:Construction,
  {f373a0a2-3ea8-4fa6-86c4-cb1d524d5fc8}, !- Handle
  {eafa945f-f772-49b6-be4b-994cb5bed4d4}; !- Construction Name

OS:StandardsInformation:Material,
  {e4b0ebd4-3de7-4a31-82d7-697ff9396c0f}, !- Handle
  {c9c7488b-4ca5-4cfb-b63c-a09c69025fd4}; !- Material Name

OS:StandardsInformation:Construction,
  {dba0ccaf-1cea-4678-86e0-cf54f070f73b}, !- Handle
  {128cf31a-7a92-4fb7-8f39-750eb457c7ab}; !- Construction Name

OS:StandardsInformation:Material,
  {3f0ed5a3-69de-4123-bf34-d0a1959ff913}, !- Handle
  {85e78a9c-f126-45df-8ca4-ecb1abcea5bd}; !- Material Name

OS:StandardsInformation:Material,
  {7d936ab6-abb2-47a8-a579-09e913fc9a4b}, !- Handle
  {9e0ff15b-54cb-4527-8e0e-ad477a2dd888}; !- Material Name

OS:StandardsInformation:Construction,
  {e1ab2331-1c06-4773-a8f7-fe6269b4c9a9}, !- Handle
  {b50a7f7f-46d4-40ec-bccc-b3f525e023ee}; !- Construction Name

OS:StandardsInformation:Material,
  {b4679e2d-acec-41fa-804b-c3b640204f7f}, !- Handle
  {5e506027-c32c-412e-8205-9be6e3aeaa55}; !- Material Name

OS:StandardsInformation:Material,
  {3ca8fb83-6a57-4707-989b-faa15fc0d793}, !- Handle
  {e351a0e5-87bd-4a26-83dd-62bc65ae5451}; !- Material Name

OS:StandardsInformation:Material,
  {9cf8e7d9-3c4e-4358-89c6-b44da31a99d6}, !- Handle
  {a8cd86b4-15db-4534-b892-634fda92f070}; !- Material Name

OS:Rendering:Color,
  {363b946d-418c-487b-8eed-421837090de2}, !- Handle
  Rendering Color 1,                      !- Name
  248,                                    !- Rendering Red Value
  255,                                    !- Rendering Green Value
  248;                                    !- Rendering Blue Value

OS:Rendering:Color,
  {d1761c85-0e9c-44b6-ad98-15ecd9e99c47}, !- Handle
  Rendering Color 2,                      !- Name
  255,                                    !- Rendering Red Value
  0,                                      !- Rendering Green Value
  0;                                      !- Rendering Blue Value

OS:Rendering:Color,
  {71733c9c-289f-4e30-a92e-311020a14592}, !- Handle
  Rendering Color 3,                      !- Name
  245,                                    !- Rendering Red Value
  245,                                    !- Rendering Green Value
  245;                                    !- Rendering Blue Value

OS:Rendering:Color,
  {1bbd18cd-fbea-49ce-949a-f1d53c5599d6}, !- Handle
  Rendering Color 4,                      !- Name
  173,                                    !- Rendering Red Value
  230,                                    !- Rendering Green Value
  216;                                    !- Rendering Blue Value

OS:Rendering:Color,
  {d4acc6e7-a1bf-4c7b-9287-3abbbef14489}, !- Handle
  Rendering Color 5,                      !- Name
  152,                                    !- Rendering Red Value
  152,                                    !- Rendering Green Value
  251;                                    !- Rendering Blue Value

OS:Schedule:Ruleset,
  {a6f04be7-f3a7-4af8-9dca-fcf09d423396}, ! Handle
  Office Work Occ,                        ! Name
  {58054949-334f-4475-ac6d-db3c2f06baff}, ! Schedule Type Limits Name
  {19c48279-4c1c-4ae4-ada2-3892bf29a9a8}, ! Default Day Schedule Name
  {0c21d2a0-a1c9-410e-879d-2157467e5ca1}, ! Summer Design Day Schedule Name
  {bd0d4140-bb70-424b-9207-b914483d823b}; ! Winter Design Day Schedule Name

OS:Schedule:Day,
  {19c48279-4c1c-4ae4-ada2-3892bf29a9a8}, !- Handle
  Office Bldg Occ Default Schedule,       !- Name